9
XYZ file generated by Avogadro.
W     -0.84649    0.63102   -0.00000
O     -0.81571   -1.60064   -0.00000
H     -0.17636   -1.90852   -0.63162
O     -2.97041    0.67719   -0.00000
H     -3.26754    1.57953    0.00000
O     -0.89266    2.92424   -0.00000
H     -0.00355    3.25887   -0.00000
O      1.55447    0.72337   -0.00000
H      1.90532   -0.15947   -0.00000
